$pyNastran: version=msc
$pyNastran: punch=False
$pyNastran: encoding=utf-8
$pyNastran: nnodes=150
$pyNastran: nelements=126
$EXECUTIVE CONTROL DECK
SOL 144
CEND
$CASE CONTROL DECK
AEROF = ALL
APRESSURE = ALL
DISPLACEMENT = NONE
ECHO = NONE
FORCE = NONE
SPC = 101
STRESS = NONE
TRIM = 501
BEGIN BULK
$PARAMS
PARAM    BAILOUT      -1
$NODES
GRID           1            .045      0.      0.
GRID           2        .0457143      0..0082112
GRID           3        .0464286      0..0105177
GRID           4        .0471429      0..0116127
GRID           5        .0478571      0..0119894
GRID           6        .0485714      0..0118654
GRID           7        .0492857      0..0113691
GRID           8             .05      0..0105879
GRID           9        .0507143      0. .009582
GRID          10        .0514286      0..0083924
GRID          11        .0521429      0..0070463
GRID          12        .0528571      0..0055592
GRID          13        .0535714      0..0039358
GRID          14        .0542857      0..0021713
GRID          15            .055      0.2.5191-4
GRID          16        .0452778.1111111      0.
GRID          17        .0459524.1111111 .007755
GRID          18         .046627.1111111.0099334
GRID          19        .0473016.1111111.0109675
GRID          20        .0479762.1111111.0113233
$ ... 130 like lines cut
$ELEMENTS
CQUAD4         1     202       1       2      17      16                
                            .015    .015    .015    .015
CQUAD4         2     202       2       3      18      17                
                            .015    .015    .015    .015
CQUAD4         3     202       3       4      19      18                
                            .015    .015    .015    .015
CQUAD4         4     202       4       5      20      19                
                            .015    .015    .015    .015
CQUAD4         5     202       5       6      21      20                
                            .015    .015    .015    .015
CQUAD4         6     202       6       7      22      21                
                            .015    .015    .015    .015
CQUAD4         7     202       7       8      23      22                
                            .015    .015    .015    .015
CQUAD4         8     202       8       9      24      23                
                            .015    .015    .015    .015
CQUAD4         9     202       9      10      25      24                
                            .015    .015    .015    .015
CQUAD4        10     202      10      11      26      25                
                            .015    .015    .015    .015
CQUAD4        11     202      11      12      27      26                
                            .015    .015    .015    .015
CQUAD4        12     202      12      13      28      27                
                            .015    .015    .015    .015
CQUAD4        13     202      13      14      29      28                
                            .015    .015    .015    .015
CQUAD4        14     202      14      15      30      29                
                            .015    .015    .015    .015
CQUAD4        15     202      16      17      32      31                
                            .015    .015    .015    .015
CQUAD4        16     202      17      18      33      32                
                            .015    .015    .015    .015
CQUAD4        17     202      18      19      34      33                
                            .015    .015    .015    .015
CQUAD4        18     202      19      20      35      34                
                            .015    .015    .015    .015
CQUAD4        19     202      20      21      36      35                
                            .015    .015    .015    .015
CQUAD4        20     202      21      22      37      36                
                            .015    .015    .015    .015
$ ... 212 like lines cut
$PROPERTIES
PSHELL       202     101    .015     101
$MATERIALS
MAT1         101  7.7+10              .3   2700.
$AERO
CAERO1       101     301              15      15                       1
            .045      0.      0.      .1   .0475      1.      0.     .05
PAERO1       301
SPLINE1      201     101     101     110     401
$AERO CONTROL SURFACES
AESTAT       732  ANGLEA
AEFACT       201      0.      0.      0.      0.      0.      0.
AEFACT       301      .5      0.      1.      0.     1.5      0.      2.
              0.     2.5      0.      3.      0.     3.5      0.      4.
              0.
$STATIC AERO
AEROS          0       0      .1      1.    .075       1
TRIM         501.5830904  24500.  ANGLEA      1.                      0.
$FLUTTER
MKAERO1       .5      1.     1.5      2.     2.5      3.     3.5      4.
            .001    .002     .01     .02      .1      .6      .9     1.2
$SETS
SET1         401       1       2       3       4       5       6       7
               8       9      10      11      12      13      14      15
              16      17      18      19      20      21      22      23
              24      25      26      27      28      29      30      31
              32      33      34      35      36      37      38      39
              40      41      42      43      44      45      46      47
              48      49      50      51      52      53      54      55
              56      57      58      59      60      61      62      63
              64      65      66      67      68      69      70      71
              72      73      74      75      76      77      78      79
              80      81      82      83      84      85      86      87
              88      89      90      91      92      93      94      95
              96      97      98      99     100     101     102     103
             104     105     106     107     108     109     110     111
             112     113     114     115     116     117     118     119
             120     121     122     123     124     125     126     127
             128     129     130     131     132     133     134     135
             136     137     138     139     140     141     142     143
             144     145     146     147     148     149     150
