$pyNastran: version=msc
$pyNastran: punch=False
$pyNastran: encoding=utf-8
$pyNastran: nnodes=150
$pyNastran: nelements=126
$EXECUTIVE CONTROL DECK
SOL 145
CEND
$CASE CONTROL DECK
DISPLACEMENT = ALL
ECHO = NONE
FMETHOD = 100
METHOD = 200
RESVEC = NO
SPC = 300
BEGIN BULK
$NODES
GRID           1        .1175309      0.      0.
GRID           2        .1451852      0..0510918
GRID           3        .1728395      0..0654437
GRID           4        .2004938      0..0722566
GRID           5        .2281481      0..0746005
GRID           6        .2558025      0..0738294
GRID           7        .2834568      0..0707408
GRID           8        .3111111      0..0658806
GRID           9        .3387654      0..0596213
GRID          10        .3664198      0..0258607
GRID          11        .3940741      0..0217783
GRID          12        .4217284      0..0172335
GRID          13        .4493827      0..0122375
GRID          14         .477037      0..0067714
GRID          15        .5046914      0.7.8794-4
GRID          16        -.059508.3333333      0.
GRID          17        -.032468.3333333.0499564
GRID          18        -5.428-3.3333333.0639894
GRID          19        .0216116.3333333.0706509
GRID          20        .0486514.3333333.0729427
$ ... 130 like lines cut
$ELEMENTS
CQUAD4         1     100       1       2      17      16                
                            .015    .015    .015    .015
CQUAD4         2     100       2       3      18      17                
                            .015    .015    .015    .015
CQUAD4         3     100       3       4      19      18                
                            .015    .015    .015    .015
CQUAD4         4     100       4       5      20      19                
                            .015    .015    .015    .015
CQUAD4         5     100       5       6      21      20                
                            .015    .015    .015    .015
CQUAD4         6     100       6       7      22      21                
                            .015    .015    .015    .015
CQUAD4         7     100       7       8      23      22                
                            .015    .015    .015    .015
CQUAD4         8     100       8       9      24      23                
                            .015    .015    .015    .015
CQUAD4         9     100       9      10      25      24                
                            .015    .015    .015    .015
CQUAD4        10     100      10      11      26      25                
                            .015    .015    .015    .015
CQUAD4        11     100      11      12      27      26                
                            .015    .015    .015    .015
CQUAD4        12     100      12      13      28      27                
                            .015    .015    .015    .015
CQUAD4        13     100      13      14      29      28                
                            .015    .015    .015    .015
CQUAD4        14     100      14      15      30      29                
                            .015    .015    .015    .015
CQUAD4        15     100      16      17      32      31                
                            .015    .015    .015    .015
CQUAD4        16     100      17      18      33      32                
                            .015    .015    .015    .015
CQUAD4        17     100      18      19      34      33                
                            .015    .015    .015    .015
CQUAD4        18     100      19      20      35      34                
                            .015    .015    .015    .015
CQUAD4        19     100      20      21      36      35                
                            .015    .015    .015    .015
CQUAD4        20     100      21      22      37      36                
                            .015    .015    .015    .015
$ ... 212 like lines cut
$PROPERTIES
PSHELL       100     100    .015     100
$MATERIALS
MAT1         100 7.78+10              .3   2700.
$AERO
CAERO5       101     201              15               0     400
        .1175309      0.      0..6222222-1.47582      3.      0..4977778
PAERO5       201       1     401       0       0       0       0
              0.      0.      0.      0.      0.      0.      0.      0.
              0.      0.      0.      0.      0.      0.      0.
SPLINE1      201     101     101     110     500
$DYNAMIC
EIGRL        200 -10000.  10000.       4                            MASS
$AERO CONTROL SURFACES
AEFACT       400      0.      0.      0.      0.      0.      0.
AEFACT       401      .5      0.      1.      0.     1.5      0.      2.
              0.     2.5      0.      3.      0.     3.5      0.      4.
              0.
$FLUTTER
AERO           0              3.      1.       1
FLUTTER      100      PK     101     102     103       L       4
FLFACT       101.0034156
FLFACT       102   3.068
FLFACT       103     10.60.20101 110.402 160.603 210.804 261.005 311.206
         361.407 411.608 461.809512.0101562.2111612.4121662.6131712.8141
        763.0151813.2161863.4171913.6181963.8191 1014.021064.2211114.422
        1164.6231214.8241265.0251315.2261365.4271415.6281465.829 1516.03
        1566.2311616.4321666.6331716.8341767.0351817.2361867.4371917.638
        1967.839 2018.042068.2412118.4422168.6432218.8442269.0452319.246
        2369.4472419.6482469.849 2520.052570.2512620.4522670.6532720.854
        2771.0552821.2562871.4572921.6582971.859 3022.063072.2613122.462
        3172.6633222.8643273.0653323.2663373.4673423.6683473.869 3524.07
        3574.2713624.4723674.6733724.8743775.0753825.2763875.4773925.678
        3975.879 4026.084076.2814126.4824176.6834226.8844277.0854327.286
        4377.4874427.6884477.889 4528.094578.2914628.4924678.6934728.894
        4779.0954829.2964879.4974929.6984979.8995030.1015080.3025130.503
        5180.7045230.9055281.1065331.3075381.5085431.709 5481.915532.111
        5582.3125632.5135682.7145732.9155783.1165833.3175883.5185933.719
         5983.926034.1216084.3226134.5236184.7246234.9256285.1266335.327
        6385.5286435.729 6485.936536.1316586.3326636.5336686.7346736.935
        6787.1366837.3376887.5386937.739 6987.947038.1417088.3427138.543
        7188.7447238.9457289.1467339.3477389.5487439.749 7489.957540.151
        7590.3527640.5537690.7547740.9557791.1567841.3577891.5587941.759
         7991.968042.1618092.3628142.5638192.7648242.9658293.1668343.367
$ ... 5 like lines cut
MKAERO1       .5      1.     1.5      2.     2.5      3.     3.5      4.
            .001    .002     .01     .02      .1      .6      .9     1.2
$SPCs
SPC1         300  123456       1       2       3       4       5       6
               7       8       9      10      11      12      13      14
              15
$SETS
SET1         500       1       2       3       4       5       6       7
               8       9      10      11      12      13      14      15
              16      17      18      19      20      21      22      23
              24      25      26      27      28      29      30      31
              32      33      34      35      36      37      38      39
              40      41      42      43      44      45      46      47
              48      49      50      51      52      53      54      55
              56      57      58      59      60      61      62      63
              64      65      66      67      68      69      70      71
              72      73      74      75      76      77      78      79
              80      81      82      83      84      85      86      87
              88      89      90      91      92      93      94      95
              96      97      98      99     100     101     102     103
             104     105     106     107     108     109     110     111
             112     113     114     115     116     117     118     119
             120     121     122     123     124     125     126     127
             128     129     130     131     132     133     134     135
             136     137     138     139     140     141     142     143
             144     145     146     147     148     149     150
