$pyNastran: version=msc
$pyNastran: punch=False
$pyNastran: encoding=utf-8
$pyNastran: nnodes=450
$pyNastran: nelements=392
$EXECUTIVE CONTROL DECK
SOL 145
CEND
$CASE CONTROL DECK
DISPLACEMENT = ALL
ECHO = NONE
FMETHOD = 100
METHOD = 200
RESVEC = NO
SPC = 300
BEGIN BULK
$NODES
GRID           1            .105      0.      0.
GRID           2        .1114286      0..0115438
GRID           3        .1178571      0..0153432
GRID           4        .1242857      0..0172839
GRID           5        .1307143      0. .017986
GRID           6        .1371429      0..0178127
GRID           7        .1435714      0..0171101
GRID           8             .15      0..0159901
GRID           9        .1564286      0..0145267
GRID          10        .1628571      0.        
GRID          11        .1692857      0.        
GRID          12        .1757143      0.        
GRID          13        .1821429      0.        
GRID          14        .1885714      0.        
GRID          15            .195      0.        
GRID          16        .1069286.0428571      0.
GRID          17        .1130816.0428571.0110491
GRID          18        .1192347.0428571.0146856
GRID          19        .1253878.0428571.0165432
GRID          20        .1315408.0428571.0172151
$ ... 430 like lines cut
$ELEMENTS
CQUAD4         1     100       1       2      17      16                
                            .015    .015    .015    .015
CQUAD4         2     100       2       3      18      17                
                            .015    .015    .015    .015
CQUAD4         3     100       3       4      19      18                
                            .015    .015    .015    .015
CQUAD4         4     100       4       5      20      19                
                            .015    .015    .015    .015
CQUAD4         5     100       5       6      21      20                
                            .015    .015    .015    .015
CQUAD4         6     100       6       7      22      21                
                            .015    .015    .015    .015
CQUAD4         7     100       7       8      23      22                
                            .015    .015    .015    .015
CQUAD4         8     100       8       9      24      23                
                            .015    .015    .015    .015
CQUAD4         9     100       9      10      25      24                
                            .015    .015    .015    .015
CQUAD4        10     100      10      11      26      25                
                            .015    .015    .015    .015
CQUAD4        11     100      11      12      27      26                
                            .015    .015    .015    .015
CQUAD4        12     100      12      13      28      27                
                            .015    .015    .015    .015
CQUAD4        13     100      13      14      29      28                
                            .015    .015    .015    .015
CQUAD4        14     100      14      15      30      29                
                            .015    .015    .015    .015
CQUAD4        15     100      16      17      32      31                
                            .015    .015    .015    .015
CQUAD4        16     100      17      18      33      32                
                            .015    .015    .015    .015
CQUAD4        17     100      18      19      34      33                
                            .015    .015    .015    .015
CQUAD4        18     100      19      20      35      34                
                            .015    .015    .015    .015
CQUAD4        19     100      20      21      36      35                
                            .015    .015    .015    .015
CQUAD4        20     100      21      22      37      36                
                            .015    .015    .015    .015
$ ... 744 like lines cut
$PROPERTIES
PSHELL       100     100    .015     100
$MATERIALS
MAT1         100 7.78+10              .3   2700.
$AERO
CAERO5       101     201              15               0     400
            .105      0.      0.      .3    .132      .6      0.     .12
PAERO5       201       1     401       0       0       0       0
              0.      0.      0.      0.      0.      0.      0.      0.
              0.      0.      0.      0.      0.      0.      0.
SPLINE1      201     101     101     110     500
$DYNAMIC
EIGRL        200 -10000.  10000.       4                            MASS
$AERO CONTROL SURFACES
AEFACT       400      0.      0.      0.      0.      0.      0.
AEFACT       401      .5      0.      1.      0.     1.5      0.      2.
              0.     2.5      0.      3.      0.     3.5      0.      4.
              0.
$FLUTTER
AERO           0              .6      1.       1
FLUTTER      100      PK     101     102     103       L       4
FLFACT       101    .001
FLFACT       102   2.439
FLFACT       103     10.60.20101 110.402 160.603 210.804 261.005 311.206
         361.407 411.608 461.809512.0101562.2111612.4121662.6131712.8141
        763.0151813.2161863.4171913.6181963.8191 1014.021064.2211114.422
        1164.6231214.8241265.0251315.2261365.4271415.6281465.829 1516.03
        1566.2311616.4321666.6331716.8341767.0351817.2361867.4371917.638
        1967.839 2018.042068.2412118.4422168.6432218.8442269.0452319.246
        2369.4472419.6482469.849 2520.052570.2512620.4522670.6532720.854
        2771.0552821.2562871.4572921.6582971.859 3022.063072.2613122.462
        3172.6633222.8643273.0653323.2663373.4673423.6683473.869 3524.07
        3574.2713624.4723674.6733724.8743775.0753825.2763875.4773925.678
        3975.879 4026.084076.2814126.4824176.6834226.8844277.0854327.286
        4377.4874427.6884477.889 4528.094578.2914628.4924678.6934728.894
        4779.0954829.2964879.4974929.6984979.8995030.1015080.3025130.503
        5180.7045230.9055281.1065331.3075381.5085431.709 5481.915532.111
        5582.3125632.5135682.7145732.9155783.1165833.3175883.5185933.719
         5983.926034.1216084.3226134.5236184.7246234.9256285.1266335.327
        6385.5286435.729 6485.936536.1316586.3326636.5336686.7346736.935
        6787.1366837.3376887.5386937.739 6987.947038.1417088.3427138.543
        7188.7447238.9457289.1467339.3477389.5487439.749 7489.957540.151
        7590.3527640.5537690.7547740.9557791.1567841.3577891.5587941.759
         7991.968042.1618092.3628142.5638192.7648242.9658293.1668343.367
$ ... 5 like lines cut
MKAERO1       .5      1.     1.5      2.     2.5      3.     3.5      4.
             .01     .02      .1      .2      .4      .8     1.2     1.5
$SPCs
SPC1         300  123456       1       2       3       4       5       6
               7       8       9      10      11      12      13      14
              15     226     227     228     229     230     231     232
             233     234     235     236     237     238     239     240
$SETS
SET1         500       1       2       3       4       5       6       7
               8       9      10      11      12      13      14      15
              16      17      18      19      20      21      22      23
              24      25      26      27      28      29      30      31
              32      33      34      35      36      37      38      39
              40      41      42      43      44      45      46      47
              48      49      50      51      52      53      54      55
              56      57      58      59      60      61      62      63
              64      65      66      67      68      69      70      71
              72      73      74      75      76      77      78      79
              80      81      82      83      84      85      86      87
              88      89      90      91      92      93      94      95
              96      97      98      99     100     101     102     103
             104     105     106     107     108     109     110     111
             112     113     114     115     116     117     118     119
             120     121     122     123     124     125     126     127
             128     129     130     131     132     133     134     135
             136     137     138     139     140     141     142     143
             144     145     146     147     148     149     150     151
             152     153     154     155     156     157     158     159
             160     161     162     163     164     165     166     167
$ ... 8 like lines cut
